Processing entry 80 table 13:6763
        Processing struct 00 at 13:6763
            06 82 67
        Processing struct 01 at 13:6766
            07 91 67
        Processing struct 02 at 13:6769
            0B 99 67
        Processing struct 03 at 13:676C
            11 A1 67
        Processing struct 04 at 13:676F
            13 A9 67
        Processing struct 05 at 13:6772
            14 B1 67
        Processing struct 06 at 13:6775
            15 C0 67
        Processing struct 07 at 13:6778
            19 C8 67
        Processing struct 08 at 13:677B
            1C D0 67
        Processing struct 09 at 13:677E
            25 D8 67
        Processing struct 0A at 13:6781
            FF 09 14
Processing entry 80 table 13:67E0
        Processing struct 00 at 13:67E0
            00 F6 67
        Processing struct 01 at 13:67E3
            10 FE 67
        Processing struct 02 at 13:67E6
            14 0D 68
        Processing struct 03 at 13:67E9
            17 1C 68
        Processing struct 04 at 13:67EC
            18 24 68
        Processing struct 05 at 13:67EF
            1F 2C 68
        Processing struct 06 at 13:67F2
            22 34 68
        Processing struct 07 at 13:67F5
            FF 08 11
Processing entry 80 table 13:683C
        Processing struct 00 at 13:683C
            00 49 68
        Processing struct 01 at 13:683F
            01 51 68
        Processing struct 02 at 13:6842
            02 59 68
        Processing struct 03 at 13:6845
            21 6F 68
        Processing struct 04 at 13:6848
            FF 10 0B
Processing entry 80 table 13:6877
        Processing struct 00 at 13:6877
            00 93 68
        Processing struct 01 at 13:687A
            01 9B 68
        Processing struct 02 at 13:687D
            08 A3 68
        Processing struct 03 at 13:6880
            0E B2 68
        Processing struct 04 at 13:6883
            10 BA 68
        Processing struct 05 at 13:6886
            11 C2 68
        Processing struct 06 at 13:6889
            12 CA 68
        Processing struct 07 at 13:688C
            13 D9 68
        Processing struct 08 at 13:688F
            14 E1 68
        Processing struct 09 at 13:6892
            FF 0C 16
Processing entry 80 table 13:68E9
        Processing struct 00 at 13:68E9
            00 F3 68
        Processing struct 01 at 13:68EC
            01 FB 68
        Processing struct 02 at 13:68EF
            12 0A 69
        Processing struct 03 at 13:68F2
            FF 09 1A
Processing entry 80 table 13:6912
        Processing struct 00 at 13:6912
            16 22 69
        Processing struct 01 at 13:6915
            17 2A 69
        Processing struct 02 at 13:6918
            18 32 69
        Processing struct 03 at 13:691B
            1D 3A 69
        Processing struct 04 at 13:691E
            0F 49 69
        Processing struct 05 at 13:6921
            FF 0C 0A
Processing entry 80 table 13:6951
        Processing struct 00 at 13:6951
            00 67 69
        Processing struct 01 at 13:6954
            01 A7 69
        Processing struct 02 at 13:6957
            09 AF 69
        Processing struct 03 at 13:695A
            0B B7 69
        Processing struct 04 at 13:695D
            0D BF 69
        Processing struct 05 at 13:6960
            0E C7 69
        Processing struct 06 at 13:6963
            13 CF 69
        Processing struct 07 at 13:6966
            FF 15 24
Processing entry 80 table 13:69D0
        Processing struct 00 at 13:69D0
            00 E0 69
        Processing struct 01 at 13:69D3
            01 E8 69
        Processing struct 02 at 13:69D6
            02 F0 69
        Processing struct 03 at 13:69D9
            03 F8 69
        Processing struct 04 at 13:69DC
            05 00 6A
        Processing struct 05 at 13:69DF
            FF 0C 0D
Processing entry 80 table 13:6A08
        Processing struct 00 at 13:6A08
            00 18 6A
        Processing struct 01 at 13:6A0B
            03 27 6A
        Processing struct 02 at 13:6A0E
            05 2F 6A
        Processing struct 03 at 13:6A11
            08 45 6A
        Processing struct 04 at 13:6A14
            0A 4D 6A
        Processing struct 05 at 13:6A17
            FF 06 06
Processing entry 80 table 13:6A55
        Processing struct 00 at 13:6A55
            01 73 6A
        Processing struct 01 at 13:6A58
            09 7B 6A
        Processing struct 02 at 13:6A5B
            0B 8A 6A
        Processing struct 03 at 13:6A5E
            11 8B 6A
        Processing struct 04 at 13:6A61
            13 9A 6A
        Processing struct 05 at 13:6A64
            14 A9 6A
        Processing struct 06 at 13:6A67
            17 C6 6A
        Processing struct 07 at 13:6A6A
            18 D5 6A
        Processing struct 08 at 13:6A6D
            19 DD 6A
        Processing struct 09 at 13:6A70
            1C EC 6A
        Processing struct 0A at 13:6A73
            05 09 FF
        Processing struct 0B at 13:6A76
            00 08 FC
        Processing struct 0C at 13:6A79
            6C FF 0C
        Processing struct 0D at 13:6A7C
            04 FF 00
        Processing struct 0E at 13:6A7F
            08 A4 40
        Processing struct 0F at 13:6A82
            07 05 01
        Processing struct 10 at 13:6A85
            00 0B 2A
        Processing struct 11 at 13:6A88
            5A FF FF
        Processing struct 12 at 13:6A8B
            10 06 FF
        Processing struct 13 at 13:6A8E
            00 08 2F
        Processing struct 14 at 13:6A91
            6D 14 06
        Processing struct 15 at 13:6A94
            FF 00 08
Processing entry 80 table 13:6B02
        Processing struct 00 at 13:6B02
            02 0F 6B
        Processing struct 01 at 13:6B05
            0C 17 6B
        Processing struct 02 at 13:6B08
            18 1F 6B
        Processing struct 03 at 13:6B0B
            20 27 6B
        Processing struct 04 at 13:6B0E
            FF 16 0A
Processing entry 80 table 13:6B36
        Processing struct 00 at 13:6B36
            02 4C 6B
        Processing struct 01 at 13:6B39
            06 54 6B
        Processing struct 02 at 13:6B3C
            0E 5C 6B
        Processing struct 03 at 13:6B3F
            0F 6B 6B
        Processing struct 04 at 13:6B42
            17 73 6B
        Processing struct 05 at 13:6B45
            18 82 6B
        Processing struct 06 at 13:6B48
            21 8A 6B
        Processing struct 07 at 13:6B4B
            FF 18 21
Processing entry 80 table 13:6B99
        Processing struct 00 at 13:6B99
            00 9D 6B
        Processing struct 01 at 13:6B9C
            FF 17 13
Processing entry 80 table 13:6BA5
        Processing struct 00 at 13:6BA5
            01 AC 6B
        Processing struct 01 at 13:6BA8
            02 B4 6B
        Processing struct 02 at 13:6BAB
            FF 20 1C
Processing entry 80 table 13:6BBC
        Processing struct 00 at 13:6BBC
            00 C9 6B
        Processing struct 01 at 13:6BBF
            15 D1 6B
        Processing struct 02 at 13:6BC2
            19 D9 6B
        Processing struct 03 at 13:6BC5
            12 E1 6B
        Processing struct 04 at 13:6BC8
            FF 0E 14
Processing entry 80 table 13:6BE9
        Processing struct 00 at 13:6BE9
            00 F6 6B
        Processing struct 01 at 13:6BEC
            09 FE 6B
        Processing struct 02 at 13:6BEF
            17 06 6C
        Processing struct 03 at 13:6BF2
            18 1C 6C
        Processing struct 04 at 13:6BF5
            FF 0F 0E
Processing entry 80 table 13:6C2B
        Processing struct 00 at 13:6C2B
            02 2F 6C
        Processing struct 01 at 13:6C2E
            FF 0A 06
Processing entry 80 table 13:6C37
        Processing struct 00 at 13:6C37
            FF 00 00
